5
-420.9337343048892 2.534576 2.43222 -14.1341 -10.9488 -16.013 1.087 0.1323 4.162 15.72523 -3.98613 36.7680730972 39.6946262426 0.621841405
C      0.99813803     -0.00263872     -0.00464602
H      2.09441750     -0.00242373      0.00417336
H      0.63238996      1.03082951      0.00417296
H      0.62561232     -0.52974905      0.88151021
H      0.64010219     -0.50924801     -0.90858051 
8
-718.4191786915518 4.332028 4.445 -12.5472 -9.5577 -13.549 1.1186 0.1452 3.684 13.41121 -3.49181 11.7174333146 22.62248556 0.62832842
C      0.99566434     -0.00295079     -0.00645530
C      2.52433599     -0.00704005      0.00062949
H      0.59642533      1.02180902     -0.00238364
H      0.58817563     -0.51880627      0.87523331
H      0.59641749     -0.50854984     -0.89780318
H      2.92359554      0.50116660      0.89048719
H      2.93182660      0.50621547     -0.88257380
H      2.92355907     -1.03181414     -0.00043407 
6
-570.0248559034032 4.173282 3.92308 -10.4383 -7.8768 -10.16 1.9456 -0.062 1.231 9.75211 -0.82042 7.1372664886 22.9406708318 0.709059588
C      0.98946692      0.00007550      0.00000000
C      2.32461012     -0.00013585      0.00000000
H      0.41663940      0.92974933      0.00000000
H      0.41634287     -0.92941467      0.00000000
H      2.89773268      0.92935495      0.00000000
H      2.89743801     -0.92980927      0.00000000 
4
-410.2861527671238 3.512394 3.32175 -11.1629 -8.4021 -10.706 1.1958 0.4143 2.145 10.46577 -1.89847 4.6241074644 15.973798303 2.22847974
C      0.98972410      0.00000000      0.00000000
C      2.20043588      0.00000000      0.00000000
H     -0.08202857      0.00000000      0.00000000
H      3.27218859      0.00000000      0.00000000 
9
-868.8554219717826 5.48016 5.78632 -10.8132 -8.3534 -12.365 1.2002 0.269 3.825 11.96491 -3.57487 10.3116552494 17.9005159458 0.556173673
C     -0.02685201      0.87078057     -0.05692871
C     -0.73928196     -0.46068850     -0.05716072
C      0.76666931     -0.41017260      0.04288779
H      0.01672181      1.42791936     -0.99323318
H     -0.10696079      1.49356439      0.83453787
H     -1.17833564     -0.80568159     -0.99374138
H     -1.30207225     -0.73988932      0.83406126
H      1.22416472     -0.65503779      1.00190446
H      1.34779680     -0.72084452     -0.82587738 
11
-1017.3128026888861 6.170637 6.52733 -11.9831 -9.1147 -12.816 1.0778 0.1173 3.429 12.65897 -3.21095 10.9523777016 15.7693577876 0.538613954
C      0.97845955     -0.02768979      0.00389766
C      2.50774209      0.01819297      0.00831353
C      3.05889059      1.44544974      0.00669378
H      0.60211829     -1.06093922      0.00127122
H      0.56966716      0.47973329     -0.88389480
H      0.56477020      0.47699441      0.89098372
H      2.89423058     -0.52569991     -0.86988889
H      2.88881752     -0.52182571      0.89125798
H      2.72423469      1.99802663     -0.88517904
H      4.15845772      1.45737554      0.01421023
H      2.71204162      2.00483205      0.88962461 
9
-872.6193544888124 6.094932 6.09119 -9.7903 -7.349 -9.562 1.0717 0.169 1.364 9.10045 -0.85739 6.710246306 6.710246306 0.429254796
C      0.96797053     -0.01219310      0.03712852
C      2.45732001      0.07634869      0.17261662
C      3.20126278      1.13572502     -0.16570673
H      0.67869402     -0.85110128     -0.61581754
H      0.54471661      0.91181994     -0.38057026
H      0.49232629     -0.19891972      1.01345648
H      2.95758301     -0.80754447      0.58493744
H      2.74826498      2.04015326     -0.58074711
H      4.28498177      1.13572165     -0.04105743 
7
-716.9124468159916 5.535045 5.69181 -10.247 -7.6952 -9.925 0.9441 0.0425 2.38 9.58727 -2.0124 4.382719121 14.5559068056 1.445067417
C      0.98318823      0.00302913      0.01438752
C      2.43760578      0.00077500      0.00182832
C      3.65128941     -0.00043559     -0.00398891
H      0.59037348      1.03032089      0.02906828
H      0.59576925     -0.51948910      0.90133246
H      0.57943309     -0.49978425     -0.87673930
H      4.72201076     -0.00130608     -0.00807838 
8
-736.3636885680488 4.984783 5.12326 -9.7026 -7.321 -11.109 1.1139 0.0897 3.573 10.47576 -3.37354 9.062384712 20.4384845686 0.380387308
C     -0.05920440      0.87474790     -0.06163405
C     -0.76054880     -0.43623157     -0.06104497
N      0.71652180     -0.38332116     -0.10884352
H     -0.01756435      1.46779128     -0.97780601
H     -0.06928588      1.45695877      0.86320280
H     -1.23099070     -0.80076026     -0.97679165
H     -1.25002057     -0.75040924      0.86420328
H      1.09557290     -0.58557574      0.82162412 
10
-889.7595853842677 5.760087 5.92003 -9.3504 -6.9276 -10.641 1.0384 -0.0011 3.6 10.04543 -3.37275 8.813420824 16.505574257 0.369474881
C      0.99851568     -0.00462126      0.00528468
C      2.52332056      0.01617598     -0.01385443
N      3.01772873      1.40240938      0.03161740
H      0.61728676     -1.03560805      0.01853973
H      0.58694446      0.49012320     -0.88884712
H      0.61763227      0.52532798      0.88954162
H      2.88460715     -0.55996332     -0.89060400
H      2.90788005     -0.50009589      0.88078080
H      2.72754636      1.89770018     -0.81671631
H      4.04047798      1.41093181      0.02678764 
6
-628.2557047925212 4.45756 4.66876 -12.0735 -9.4054 -12.005 0.7005 -0.2887 1.418 11.60198 -1.11074 5.3922255316 12.5138821828 0.849750889
C      0.98647308     -0.00002291     -0.00000091
C      2.44148072     -0.00000876      0.00000033
N      3.60751248      0.00002109      0.00000640
H      0.60763620      1.03029421      0.01179759
H      0.60759942     -0.52535096      0.88638192
H      0.60758811     -0.50493268     -0.89816533 
10
-881.9058743094852 5.804944 5.91386 -8.8174 -6.4807 -10.093 1.0623 0.051 3.833 9.45197 -3.69332 8.2648695642 17.7342011254 0.400285049
C      0.99473361     -0.01020972     -0.01877491
N      2.45253321      0.02462639      0.04911034
C      2.98026566      1.38421790     -0.01381381
H      0.64860759     -1.05298966     -0.04235117
H      0.56612260      0.52152103     -0.89604511
H      0.57695153      0.45771185      0.88663649
H      2.83753164     -0.52082428     -0.72456982
H      2.67825786      1.93412560      0.89152731
H      2.62901551      1.96967610     -0.89128121
H      4.07871080      1.35601480     -0.03309812 
7
-667.8444091240374 4.309725 4.53616 -10.3916 -7.9787 -12.207 1.1432 0.1868 3.182 11.33609 -3.00351 9.2905065534 22.5044012936 0.969865629
C     -0.11615305      0.89582221     -0.06281006
C     -0.81009471     -0.40118034     -0.06316902
O      0.62563398     -0.33518528      0.01255526
H     -0.00902635      1.44795992     -1.00218591
H     -0.10911202      1.50110455      0.84951253
H     -1.20973989     -0.79640510     -1.00275757
H     -1.30982796     -0.74328596      0.84895478 
9
-822.4877424020314 5.053622 5.29455 -10.4204 -7.918 -12.297 1.0274 -0.0441 3.316 11.73717 -3.10694 10.0555621664 16.8437212748 0.261603598
C      0.98680622     -0.00556068      0.00384512
C      2.50927358      0.01966334     -0.01547778
O      3.05304559      1.34611733      0.02324657
H      0.61774476     -1.04209472      0.02517547
H      0.56972738      0.47651307     -0.89423471
H      0.60027421      0.52068553      0.88771373
H      2.89022911     -0.53230218     -0.89526213
H      2.91144160     -0.47770691      0.87951913
H      2.73168755      1.81986522     -0.76397539 
7
-691.7884400593227 4.584432 4.66253 -9.948 -7.564 -11.103 1.3801 -0.8793 -0.071 10.23465 0.60414 3.6771395922 18.476021762 0.432603359
C      0.99247987      0.01741937     -0.01355008
C      2.49414341      0.06610944      0.00915377
O      3.17309403      0.89062911     -0.57434571
H      0.66535275     -0.96243285     -0.39615644
H      0.57967416      0.82299921     -0.63114005
H      0.60911841      0.09008858      1.01672297
H      2.98212737     -0.73830286      0.62150554 
9
-810.4796555181408 5.116036 5.31348 -9.9342 -7.4877 -11.772 1.066 0.0787 3.563 11.08823 -3.44428 9.5156651294 19.4937484444 0.565780852
C      0.98729036     -0.00489977      0.00422631
O      2.40628482      0.01941219      0.00000800
C      2.90288012      1.34890404     -0.00422560
H      0.67992688     -1.05837153      0.00430684
H      0.56972709      0.49412138     -0.89181424
H      0.57522891      0.49273287      0.90359931
H      3.99851510      1.28696524     -0.00431284
H      2.57185326      1.90908978      0.89181076
H      2.57131345      1.90342581     -0.90359854 
12
-1168.8906364014688 7.280778 7.72682 -10.998 -8.5616 -12.282 1.0928 0.1531 3.314 12.06392 -3.14312 10.609977964 14.63530744 0.499724581
C      0.34153625      1.03857962     -0.09372648
C      1.01486254     -0.33510713      0.17613063
C     -0.33739712     -1.01387267     -0.17610970
C     -1.03666848      0.34678097      0.09370222
H      0.59452012      1.87967860      0.56690688
H      0.48861590      1.35500735     -1.13748229
H      1.25482289     -0.45728386      1.24319677
H      1.90081240     -0.60437811     -0.41588935
H     -0.38267652     -1.27933338     -1.24318636
H     -0.65076215     -1.88523276      0.41587614
H     -1.86226272      0.64633799     -0.56696828
H     -1.37831311      0.41786337      1.13743982 
12
-1169.3745639426397 7.351207 7.96732 -10.257 -7.8692 -11.468 1.0987 0.1994 3.413 11.14079 -3.11772 9.4912398874 11.459220071 0.372736657
C      1.00830484      0.00711468     -0.07133905
C      2.51625940     -0.06194947      0.00735422
C      3.30600801     -0.73146853     -1.09255786
C      3.36606231      0.77151100     -0.92269603
H      0.61362586      0.85320471      0.51210278
H      0.54309530     -0.91373668      0.31306051
H      0.67601273      0.13757955     -1.11260087
H      2.91607814     -0.19203053      1.01705448
H      2.74768497     -1.12222934     -1.94536411
H      4.18589975     -1.31651467     -0.82273057
H      4.28700730      1.21036876     -0.53724307
H      2.84795139      1.38516054     -1.66209043 
14
-1316.176888192253 8.02693 8.76159 -11.7457 -8.9615 -12.564 1.0594 0.1239 3.271 12.40705 -3.04713 10.6746490616 15.6309646144 0.529282652
C      0.95639262     -0.07346266      0.00118236
C      2.48371193      0.00778067     -0.00386041
C      3.01367094      1.44456330      0.01515929
C      4.54100360      1.52573544      0.01009677
H      0.60520325     -1.11530998     -0.01271911
H      0.52921178      0.43481182     -0.87725104
H      0.53647907      0.40867267      0.89768087
H      2.88026883     -0.51082700     -0.89450044
H      2.88742000     -0.53678977      0.86786838
H      2.61717450      1.96318352      0.90581339
H      2.60995944      1.98914980     -0.85655901
H      4.96815948      1.01751471      0.88858078
H      4.89226886      2.56755766      0.02388590
H      4.96087569      1.04347983     -0.88635773 
14
-1316.9514041685295 8.009455 8.58759 -11.6376 -8.9597 -12.657 0.9984 0.0479 3.191 12.42961 -2.93099 10.7340011598 15.3774504402 0.421447313
C      0.97964482     -0.01169469      0.00638349
C      2.51253780      0.01164099     -0.01159439
C      3.06181110     -0.75617544     -1.21961844
C      3.04263670      1.44999610      0.01511682
H      0.58034233      0.51014802      0.88907598
H      0.59377959     -1.04215183      0.01977554
H      0.57203289      0.48611689     -0.88887711
H      2.86914417     -0.49711494      0.90298336
H      2.73256492     -0.28735337     -2.16157028
H      2.71117932     -1.79921515     -1.22587419
H      4.16214340     -0.76956514     -1.22056606
H      2.71364642      2.00304552     -0.88007371
H      4.14263935      1.47232373      0.03536037
H      2.67729721      1.99639933      0.89765861 
10
-1030.3787852977014 8.562859 7.93143 -8.9363 -6.7951 -8.677 0.7021 -1.01 0.226 8.24319 0.24469 5.3150814424 5.3150814424 0.818747738
C      0.91259776     -0.16539164      0.23387659
C      2.13174998      0.09712831     -0.27297412
C      2.76798781      1.40282460     -0.23954322
C      3.98711724      1.66556601     -0.74632123
H      0.47659499     -1.16317260      0.18476899
H      0.31767440      0.61591528      0.71308060
H      2.70135279     -0.71048777     -0.74684906
H      2.19827266      2.21034414      0.23435676
H      4.58225475      0.88446259     -1.22558337
H      4.42287762      2.66345108     -0.69708194 
8
-871.4162307928073 7.770683 7.48844 -9.439 -7.1701 -8.955 0.6052 -1.1543 0.428 8.59068 0.03933 4.0762629248 14.3818676574 0.817528483
C      0.94191728     -0.03829793      0.00000000
C      2.28602450      0.04223430      0.00000000
C      3.02070954      1.25580523      0.00000000
C      3.68967694      2.27300896      0.00000000
H      0.44284395     -1.00705193      0.00000000
H      0.31933240      0.85701584      0.00000000
H      2.88116088     -0.87700867      0.00000000
H      4.26974451      3.17301419      0.00000000 
6
-715.3818041316641 7.518621 7.10162 -9.9102 -7.6444 -9.24 0.8388 -1.0544 0.797 8.9547 -0.48781 3.3530897826 14.819674622 3.075847003
C      0.97420860      0.00000000      0.00000000
C      2.19395461      0.00000000      0.00000000
C      3.55444881      0.00000000      0.00000000
C      4.77419477      0.00000000      0.00000000
H     -0.09641476      0.00000000      0.00000000
H      5.84481796      0.00000000      0.00000000 
12
-1174.5293417175512 8.069913 8.48143 -9.2259 -6.8844 -9.047 1.0504 0.1885 1.465 8.57931 -0.87935 6.3306383698 6.3306383698 0.407044577
C      0.93796057     -0.01561015      0.03648973
C      2.43300816      0.03283871      0.12976908
C      3.18892263      1.10945434     -0.12583363
C      4.68414524      1.15878815     -0.03717005
H      0.60828620     -0.77805254     -0.68810584
H      0.52131482      0.95306027     -0.27485230
H      0.48394163     -0.28912154      1.00285696
H      2.93246715     -0.89693336      0.43146271
H      2.68830636      2.03842740     -0.42768002
H      5.10286949      0.18917663      0.26790370
H      5.01695675      1.91890782      0.68824302
H      5.13253099      1.43559427     -1.00556333 
12
-1175.0407529943998 7.973585 8.19979 -9.3339 -7.0215 -9.171 0.9536 0.0287 1.456 8.60509 -0.86896 6.428798086 6.428798086 0.411690217
C      1.01190289     -0.00886876     -0.17003894
C      2.50403272      0.03885037      0.02515938
C      3.20706458     -1.29232387      0.00641978
C      3.16481714      1.19272892      0.20545074
H      0.56299764      0.99236804     -0.14617258
H      0.53409945     -0.62242526      0.61143821
H      0.75764627     -0.48022259     -1.13372185
H      2.81036693     -1.95544695      0.79288703
H      4.28950213     -1.18697964      0.15764545
H      3.03882715     -1.81171915     -0.95145006
H      2.64346764      2.15198801      0.21815304
H      4.24756544      1.21205087      0.34575979 
10
-1022.2052236705812 7.643979 8.47568 -9.5498 -7.0972 -9.269 0.9003 0.0256 2.567 8.88976 -2.09794 4.1617264746 13.9095429904 1.618089804
C      0.97502486     -0.00001801     -0.00001133
C      2.43117054     -0.00004721     -0.00000752
C      3.64699165     -0.00004721      0.00000751
C      5.10313540     -0.00001801      0.00001133
H      0.57588030      1.02558105      0.01165187
H      0.57579851     -0.52284569      0.88234334
H      0.57577890     -0.50267015     -0.89400153
H      5.50227888      1.02558127     -0.01165187
H      5.50236068     -0.52284580     -0.88234353
H      5.50238028     -0.50267025      0.89400172 
12
-1171.1453729719244 7.997701 8.29777 -9.6898 -7.3524 -9.514 1.312 0.0341 1.381 9.0094 -0.84282 6.688176798 6.688176798 0.440384309
C      0.90765567     -0.13966479     -0.11614025
C      2.41357736      0.04498031      0.12602122
C      2.83482543      1.48553983      0.10032148
C      3.41475649      2.14198825      1.11169985
H      0.63877567     -1.20545304     -0.13345943
H      0.60352785      0.29890102     -1.07840891
H      0.32024478      0.34940414      0.67416231
H      2.96737657     -0.50418276     -0.65618738
H      2.70021444     -0.40545596      1.08990237
H      2.62953279      2.02524831     -0.83280063
H      3.63436849      1.64468711      2.06047559
H      3.69202446      3.19394757      1.02873378 
10
-1015.3614058015684 7.431522 7.90333 -10.0822 -7.634 -9.848 0.9965 -0.0032 2.381 9.488 -1.99388 4.366724927 10.67395474 0.768649303
C      0.97382538     -0.07122743      0.00300771
C      2.51043398      0.00060804     -0.00009512
C      3.02304761      1.36632895      0.00002194
C      3.42800722      2.51111928      0.00010751
H      0.64208449     -1.11860841      0.00259774
H      0.55800430      0.42480393     -0.88402436
H      0.56167771      0.42294119      0.89279042
H      2.90685379     -0.52899041     -0.88233316
H      2.91048551     -0.53053028      0.87957452
H      3.78859001      3.51922514      0.00016280 
11
-1037.0482286572067 6.812681 7.10065 -8.9137 -6.5953 -10.254 1.0454 0.0587 3.458 9.61627 -3.25747 8.480456421 15.0511068896 0.276200966
C      0.35971598      1.11748061      0.08314934
C      1.00493294     -0.28776219      0.01018802
N     -0.31675370     -0.87230847      0.37415880
C     -0.99203517      0.37917104     -0.07168961
H      0.47009825      1.56993294      1.07677329
H      0.63451014      1.84541854     -0.68914708
H      1.81839580     -0.52153086      0.71448433
H      1.33922639     -0.52791710     -1.01714726
H     -0.57585484     -1.71238509     -0.14875842
H     -1.32681505      0.36248541     -1.12645321
H     -1.83217073      0.69767518      0.56479180 
11
-1038.8326648333823 6.871757 7.32674 -9.4977 -7.2323 -11.022 1.0285 0.0501 3.288 10.36341 -3.01842 8.920296756 11.7049851202 0.236132268
C      0.98909835     -0.01720793     -0.04517693
C      2.49420109     -0.09991398      0.00438007
C      3.28601456     -0.72566762     -1.08907263
N      3.23164365      0.75027181     -0.95872717
H      0.62270483      0.85063222      0.52333892
H      0.53124630     -0.92277830      0.38060235
H      0.64825531      0.09153199     -1.08393939
H      2.92246582     -0.19130256      1.00933167
H      2.76649765     -1.11949691     -1.96683142
H      4.21012360     -1.24796736     -0.82816295
H      4.10072883      1.08471866     -0.53085251 
13
-1188.5126977141576 7.587945 8.10678 -9.2934 -6.9194 -10.634 1.0258 0.0257 3.357 10.01276 -3.12205 8.7732989544 15.879258978 0.297968621
C      0.96954145     -0.04207506     -0.00553569
C      2.49719467      0.02022903      0.00628201
C      3.03839212      1.44915104      0.03830518
N      4.50937393      1.45079606     -0.00118214
H      0.61300090     -1.08170442     -0.01826812
H      0.55645402      0.46123145     -0.89323743
H      0.53937964      0.44581631      0.88268965
H      2.91141857     -0.48841668     -0.87877545
H      2.88164660     -0.52664600      0.88572794
H      2.61009891      1.97513697      0.91795552
H      2.68056936      1.98999817     -0.85426855
H      4.87563745      1.02190686      0.85366893
H      4.85880237      2.41179628     -0.00572184 
7
-780.3298576243725 6.435665 6.36061 -10.708 -8.4238 -10.26 0.0886 -1.866 -0.331 9.86647 0.7284 5.0528138566 15.0473625124 0.698982927
C      0.96360713     -0.00768158      0.00000000
C      2.30576819      0.02950685      0.00000000
C      3.05315872      1.24357002      0.00000000
N      3.69650294      2.22043193      0.00000000
H      0.43672497     -0.96093907      0.00000000
H      0.36821980      0.90518446      0.00000000
H      2.89794825     -0.88854263      0.00000000 
5
-619.7770148982823 6.147521 5.96463 -11.3629 -8.9771 -10.69 0.2766 -1.8218 -0.11 10.37225 0.34727 3.7894833068 16.6767617272 1.690819441
C      0.99694423      0.00000000      0.00000000
C      2.21277709      0.00000000      0.00000000
C      3.57887763      0.00000000      0.00000000
N      4.75218280      0.00000000      0.00000000
H     -0.07432175      0.00000000      0.00000000 
13
-1190.568862956633 7.596492 7.95413 -9.2172 -6.9414 -10.55 0.9514 -0.0514 3.278 9.91111 -3.02489 8.604566407 15.414497457 0.237639413
C      0.99638417      0.01021423      0.00193398
C      2.52526746      0.01360122     -0.02392087
C      3.06712565     -0.76977631     -1.22865314
N      2.99775239      1.40923883      0.05640523
H      0.62449207      0.55017160      0.88287476
H      0.60116044     -1.01517669      0.02187182
H      0.59322722      0.50522691     -0.89722973
H      2.88218904     -0.48298090      0.89620152
H      2.72511370     -0.31477067     -2.17261057
H      2.72664818     -1.81731796     -1.21695861
H      4.16760544     -0.77489402     -1.23484964
H      2.68587833      1.91717674     -0.77845301
H      4.02100590      1.42808703      0.02684827 
9
-926.822344393413 6.293186 6.81112 -11.829 -9.2515 -11.859 0.7911 -0.319 1.469 11.43574 -1.11464 5.3845755954 13.9727634518 0.517920776
C      0.97386084     -0.06067746      0.00351064
C      2.51027596     -0.00411384     -0.00015209
C      3.02519163      1.36307648      0.00016301
N      3.42098765      2.46041726      0.00035735
H      0.64010066     -1.10622254      0.00176005
H      0.56174849      0.43756645     -0.88309846
H      0.56614311      0.43319267      0.89458820
H      2.91666976     -0.51891229     -0.88479273
H      2.92097189     -0.52100673      0.88127403 
13
-1182.532815803463 7.691157 8.15133 -8.7331 -6.4665 -10.061 1.0365 0.0669 3.555 9.38484 -3.32335 8.2043767948 15.6175121334 0.216583733
C      0.97235841     -0.06864246      0.01366674
C      2.49550623     -0.01208342      0.00032950
N      2.97544433      1.36954792     -0.03475670
C      4.43122985      1.46456219      0.02262159
H      0.61937681     -1.10922244     -0.00104556
H      0.55747334      0.45511712     -0.85889642
H      0.56597199      0.40644956      0.92048915
H      2.87845779     -0.51829775     -0.90290001
H      2.90007489     -0.58040844      0.86883194
H      2.57318344      1.87782245      0.75738785
H      4.86113109      1.03680413     -0.89669563
H      4.89036383      0.93287664      0.88392856
H      4.73224799      2.52049450      0.06785899 
11
-1030.844853269464 6.954118 7.27193 -9.0768 -6.8709 -10.548 1.0813 0.1585 3.613 9.89821 -3.36146 8.7027757176 12.4131559564 0.30450366
C      1.13042194     -0.01720673     -0.08058734
N      2.58515095     -0.10013365      0.01334320
C      3.25077013     -0.73297472     -1.12906380
C      3.32243113      0.74563700     -0.92992788
H      0.77461394      0.81587245      0.54314618
H      0.68955443     -0.94845381      0.30425328
H      0.76494770      0.14082519     -1.11694740
H      2.62193064     -1.09057067     -1.95222702
H      4.10787716     -1.36575109     -0.88771546
H      4.23261370      1.20788390     -0.54113936
H      2.74105829      1.36583213     -1.62147439 
13
-1176.5881342600453 7.758274 7.99671 -8.3754 -6.2421 -9.705 1.0056 0.0232 3.655 8.98601 -3.49657 7.775100067 15.2607796142 0.438204052
C      0.99926028      0.00316381     -0.00954979
N      2.45692178      0.01746249     -0.02557804
C      2.97434962     -0.71375726     -1.17569270
C      2.96674125      1.38302198     -0.00176926
H      0.63204576      0.51867192      0.88964002
H      0.63774041     -1.03492722      0.01894915
H      0.55047269      0.50084128     -0.90057909
H      2.61536804     -1.75275853     -1.14816129
H      4.07333538     -0.72994308     -1.14251143
H      2.66472550     -0.26703625     -2.14915438
H      2.60160417      1.90072501      0.89700365
H      2.65716758      1.97758222     -0.89264867
H      4.06569755      1.36917362      0.03351184 
11
-1043.0183587352433 6.931136 7.33912 -9.3536 -6.9994 -10.458 1.0347 0.0596 3.707 9.86959 -3.56839 8.6172377762 11.647492812 0.400874757
N      1.03645061     -0.03827912     -0.15075160
C      2.47373394     -0.07307926      0.01979074
C      3.27053239     -0.75546983     -1.06443354
C      3.29401217      0.75232881     -0.94083903
H      0.63405950      0.74499349      0.37014441
H      0.61277398     -0.89220617      0.22090639
H      2.88050932     -0.16275468      1.03636077
H      2.69780741     -1.17380560     -1.89229456
H      4.15985258     -1.31670120     -0.77704298
H      4.19985777      1.23095178     -0.56821544
H      2.73660033      1.31734178     -1.68807518 
11
-1041.6371450087972 7.532805 7.66796 -9.3755 -6.9991 -9.631 1.1714 -0.1652 1.355 9.15167 -0.82588 6.7540629584 6.7540629584 0.431685023
N      0.89522949     -0.11808492     -0.20517799
C      2.32649505      0.02880409      0.13007304
C      2.74855218      1.46892481      0.07974204
C      3.31797630      2.13761679      1.08700203
H      0.65358457     -1.11197573     -0.22780600
H      0.73028091      0.23003458     -1.15435566
H      2.99707903     -0.55102597     -0.54075454
H      2.48175648     -0.35972143      1.14903524
H      2.58153066      1.98273007     -0.87559800
H      3.49621588      1.66219347      2.05507701
H      3.62685944      3.17850425      0.98055282 
9
-885.0635743248774 6.981404 7.26011 -9.6751 -7.2431 -9.82 0.9297 -0.2174 2.348 9.51129 -1.96204 4.4013294196 10.9012706724 0.490122346
N      0.97806547     -0.03936246      0.02147802
C      2.45273294     -0.00199788     -0.01670349
C      2.95541427      1.36866659      0.01031824
C      3.37712602      2.50643166      0.00022227
H      0.66901843     -1.01014450     -0.07072170
H      0.60748690      0.46309859     -0.78931771
H      2.90242982     -0.51016858     -0.89458760
H      2.82779124     -0.53248311      0.87486225
H      3.74573491      3.51182971      0.00258971 
10
-968.5530003120717 6.058154 6.47572 -9.5912 -7.2138 -11.476 1.0372 0.0794 3.191 10.90196 -3.00546 9.3887406612 15.7468667272 0.392692796
C      0.35446348      1.07880893     -0.06110893
C      0.97907408     -0.30670707      0.19335374
O     -0.32738696     -0.95319044      0.14339207
C     -0.99017900      0.34553669      0.10849008
H      0.58241215      1.86254034      0.67133731
H      0.52539464      1.46322959     -1.07416915
H      1.44841736     -0.42529745      1.18590506
H      1.65810314     -0.70008186     -0.57938592
H     -1.70743168      0.41463121     -0.72444251
H     -1.51308721      0.55555006      1.05821826 
10
-971.4451012466668 6.163483 6.69993 -10.0971 -7.8293 -12.022 1.0473 0.1328 2.969 11.13785 -2.73724 9.2523684598 11.3878537294 0.349770132
C      0.97947744     -0.02058782     -0.05518206
C      2.47171859     -0.18705497      0.04469402
C      3.27663397     -0.75202405     -1.05142809
O      3.28115927      0.66686208     -0.79528801
H      0.65284354      0.88134021      0.48240013
H      0.46607658     -0.88505763      0.39211474
H      0.66732029      0.07012318     -1.10434352
H      2.87156500     -0.29550673      1.06166922
H      2.77466900     -1.05559744     -1.97723272
H      4.21615633     -1.26980684     -0.82972371 
12
-1121.2299896718878 6.864247 7.42834 -10.2704 -7.8462 -12.169 1.0147 -0.0129 3.103 11.64668 -2.88212 9.952480206 14.9340145112 0.142051617
C      0.97189843     -0.03265788     -0.00785599
C      2.50171964      0.00728450      0.01298289
C      3.04630959      1.43366989      0.03318078
O      4.47693921      1.50173053      0.00091275
H      0.60016279     -1.06643645     -0.01486661
H      0.57285613      0.47039985     -0.90167717
H      0.54536228      0.46877389      0.87425763
H      2.91266266     -0.51372633     -0.86639904
H      2.87422668     -0.53247261      0.90183883
H      2.64576383      1.97691107      0.91137831
H      2.71230031      1.97753213     -0.86427503
H      4.81248845      1.04808141      0.79397266 
8
-847.3179688263709 6.510548 6.29995 -9.8341 -7.6508 -10.756 -0.0871 -2.0701 -0.988 9.84059 1.46575 3.3931496592 5.7645678882 0.579990064
C      0.98104227     -0.02132361      0.02314864
C      2.32254705     -0.00473977     -0.02870622
C      3.06096798      1.26939400     -0.01393100
O      4.27884408      1.36341217     -0.05784740
H      0.40883473     -0.94927164      0.01440824
H      0.41447129      0.91245063      0.07777618
H      2.91893969     -0.91896302     -0.08319224
H      2.41110292      2.18211124      0.04268380 
12
-1124.3377013195454 6.871774 7.35027 -10.2056 -7.8663 -12.16 0.962 -0.0604 3.064 11.5503 -2.82129 9.8595279018 15.2908462192 0.212151749
C      0.97715808      0.00370460      0.00413165
C      2.50441214      0.00295194     -0.02511745
C      3.06637861     -0.74923067     -1.22996904
O      3.02924924      1.34296396      0.04578515
H      0.61001467      0.56312753      0.87500211
H      0.58099579     -1.02139405      0.05472761
H      0.57081574      0.47414593     -0.90644360
H      2.87915601     -0.47002139      0.89783131
H      2.71127914     -0.29742496     -2.17090521
H      2.74683059     -1.80194290     -1.22453983
H      4.16416436     -0.71770080     -1.22458508
H      2.72844563      1.81532081     -0.75204761 
10
-997.5011050441734 6.35476 6.74966 -9.4485 -7.2766 -10.679 1.3817 -0.5916 0.236 9.73431 0.41796 3.742207445 16.0399324354 0.247732625
C      0.98870488      0.02100563     -0.00777406
C      2.50288943      0.04767470      0.00563311
C      3.21567869     -1.29734814     -0.00338409
O      3.13402804      1.09436236      0.02167242
H      0.58642815      1.03959366     -0.00195952
H      0.61607549     -0.53670600      0.86563530
H      0.63133744     -0.52047915     -0.89770343
H      2.52891720     -2.15252383      0.01788840
H      3.89244997     -1.34813055      0.86086481
H      3.84356070     -1.35877868     -0.90363294 
10
-990.1188233522711 6.376357 6.77144 -9.7532 -7.449 -10.988 1.145 -0.9213 -0.01 10.12206 0.58889 3.686227766 13.3550775984 0.247242407
C      0.96669647     -0.03425002     -0.05462299
C      2.49161977      0.03139219      0.10394617
C      3.00885160      1.44671896      0.03553559
O      3.74539537      1.96773097      0.85205697
H      0.62605512     -1.07712703     -0.09472091
H      0.63784189      0.46056731     -0.98061664
H      0.45998307      0.45537256      0.78874972
H      2.96733036     -0.51612746     -0.73038280
H      2.83203321     -0.42529696      1.04354277
H      2.65513314      2.02581947     -0.86079787 
12
-1112.4731548956163 7.003955 7.55628 -9.7535 -7.4133 -11.634 1.0587 0.0984 3.399 10.96116 -3.18422 9.422936 15.8032059656 0.186571824
C      0.95445569     -0.08809039     -0.00101345
C      2.46994309     -0.02494825     -0.01143103
O      2.87389723      1.34282854      0.02721337
C      4.28625437      1.47562491      0.01957801
H      0.61835308     -1.13391771     -0.03076387
H      0.53839199      0.43546073     -0.87269036
H      0.55290885      0.38011752      0.90815354
H      2.87675773     -0.50990113     -0.92285844
H      2.89133266     -0.56464120      0.86180054
H      4.51231024      2.54905873      0.05046348
H      4.73169203      1.03932350     -0.89546783
H      4.74664302      0.98446472      0.89869604 
10
-969.8473525640021 7.065553 7.13995 -8.8279 -6.5784 -9.42 0.9931 0.0821 1.254 9.00595 -0.79841 6.413423822 6.413423822 0.392772724
C      0.98091743     -0.12928350      0.05179981
O      2.37716341     -0.00405597     -0.23369199
C      2.85142516      1.27814988     -0.20326882
C      4.09661897      1.59414683     -0.57873543
H      0.76351946     -1.20322737      0.07757865
H      0.36993785      0.34655137     -0.73289005
H      0.73251713      0.31419256      1.03042452
H      2.14501275      2.03156371      0.16515847
H      4.79170001      0.84030491     -0.94702388
H      4.42796783      2.62734758     -0.50989128 
10
-974.1016412297545 6.210776 6.69822 -9.9525 -7.5922 -11.502 1.0611 0.0459 3.394 11.19957 -3.10134 9.2633164236 11.5095707856 0.219036502
O      1.03519370     -0.08213794     -0.06462115
C      2.44367431     -0.04962458      0.04098961
C      3.19715400     -0.74847019     -1.04610134
C      3.24661467      0.76702305     -0.94193824
H      0.69417216      0.75666797      0.29359310
H      2.82959948     -0.13897723      1.06290604
H      2.59354109     -1.16521066     -1.85250239
H      4.08121844     -1.32693974     -0.77834320
H      4.16543990      1.24337184     -0.59756617
H      2.68265225      1.32628748     -1.68913626 
6
-683.0580356042997 5.906678 5.91305 -10.472 -8.2639 -11.093 -0.253 -2.3876 -0.956 10.18545 1.44767 3.492189676 15.8412076746 1.290842867
O      0.93625128     -0.08141965      0.00002974
C      2.15588189     -0.00396005     -0.00005177
C      2.88511485      1.24265922     -0.00002366
C      3.55029026      2.26088778     -0.00000138
H      2.80245547     -0.91331116      0.00002804
H      4.11582625      3.17183385      0.00001903 
10
-974.5451880230589 6.847734 7.04071 -9.9339 -7.5577 -9.762 1.2112 -0.3199 1.259 9.27469 -0.74467 6.780298396 6.780298396 0.431226023
O      0.94129915     -0.09779321     -0.27243923
C      2.32226039     -0.02191080      0.12332658
C      2.75713175      1.40922452      0.06871581
C      3.35979450      2.05111936      1.07428090
H      0.72063290     -1.03625354     -0.39775560
H      2.95020545     -0.61585986     -0.56987691
H      2.47182740     -0.42349376      1.14300199
H      2.56573206      1.92208969     -0.87963490
H      3.54589669      1.55960630      2.03276196
H      3.69275973      3.08495130      0.97404939 
8
-815.6054140365251 6.312589 6.65717 -10.2536 -7.7067 -9.953 0.9398 -0.3903 2.261 9.87551 -1.87869 4.414211565 14.8621522256 0.88982292
O      0.96153222     -0.02664731     -0.01155655
C      2.39735992     -0.00920734     -0.00009292
C      2.87387664      1.36736970     -0.00024467
C      3.30837483      2.49951094      0.00000092
H      0.68771311     -0.96030002     -0.01105517
H      2.80922894     -0.52669391     -0.88729163
H      2.79491488     -0.52153250      0.89658087
H      3.68594947      3.50163045      0.00015915 
9
-836.6785797051283 6.327468 6.35349 -9.7038 -7.4287 -10.67 1.8301 -0.1276 0.459 10.24125 0.08473 5.4998825754 13.403010586 0.321490238
C      0.99893264      0.00591025     -0.01817013
C      2.47484389      0.09434526      0.18110833
N      3.11931588      1.10597060     -0.27147222
O      4.50591117      0.99527452      0.01902006
H      0.73771660     -0.90203601     -0.58353468
H      0.62984172      0.88304374     -0.56336593
H      0.47811521     -0.05905522      0.94963273
H      3.00229878     -0.70978999      0.71478733
H      4.85542411      1.81589685     -0.37237549 
